MODEL 1
REMARK VINA RESULT:     -12.7      0.000      0.000
REMARK  4 active torsions:
REMARK  status: ('A' for Active; 'I' for Inactive)
REMARK    1  A    between atoms: N1_4  and  C6_13 
REMARK    2  A    between atoms: C1_8  and  C7_14 
REMARK    3  A    between atoms: C6_13  and  C8_15 
REMARK    4  A    between atoms: C8_15  and  C9_16 
ROOT
ATOM      1  N1  UNK A   1       9.469   6.633 -10.248  1.00  0.00    -0.071 N 
ATOM      2  C1  UNK A   1      10.960   7.510  -7.776  1.00  0.00     0.044 C 
ATOM      3  C2  UNK A   1      11.014   8.312  -9.105  1.00  0.00     0.038 C 
ATOM      4  C3  UNK A   1       9.702   6.601  -7.694  1.00  0.00     0.038 C 
ATOM      5  C4  UNK A   1      10.777   7.405 -10.331  1.00  0.00     0.235 C 
ATOM      6  C5  UNK A   1       9.503   5.779  -8.991  1.00  0.00     0.235 C 
ATOM      7  HN  UNK A   1       8.682   7.302 -10.181  1.00  0.00     0.279 HD
ENDROOT
BRANCH   1   8
ATOM      8  C6  UNK A   1       9.283   5.755 -11.476  1.00  0.00     0.239 C 
BRANCH   8   9
ATOM      9  C8  UNK A   1       7.890   5.841 -12.145  1.00  0.00     0.074 C 
BRANCH   9  10
ATOM     10  C9  UNK A   1       7.566   4.577 -12.913  1.00  0.00     0.036 A 
ATOM     11  C16 UNK A   1       6.343   3.835 -12.504  1.00  0.00     0.257 A 
ATOM     12  O2  UNK A   1       5.607   4.229 -11.615  1.00  0.00    -0.267 OA
ATOM     13  N2  UNK A   1       6.113   2.653 -13.214  1.00  0.00    -0.302 N 
ATOM     14  C11 UNK A   1       4.980   1.794 -12.799  1.00  0.00     0.133 C 
ATOM     15  C13 UNK A   1       7.004   2.224 -14.205  1.00  0.00     0.109 A 
ATOM     16  C12 UNK A   1       4.618   0.668 -13.798  1.00  0.00     0.021 C 
ATOM     17  C14 UNK A   1       5.881  -0.057 -14.293  1.00  0.00     0.009 C 
ATOM     18  C15 UNK A   1       6.819   0.946 -14.993  1.00  0.00     0.079 C 
ATOM     19  N4  UNK A   1       8.003   3.001 -14.556  1.00  0.00    -0.239 NA
ATOM     20  C17 UNK A   1       8.347   4.121 -13.961  1.00  0.00     0.044 A 
ATOM     21  C20 UNK A   1       9.580   4.810 -14.493  1.00  0.00     0.071 C 
ENDBRANCH   9  10
ENDBRANCH   8   9
ENDBRANCH   1   8
BRANCH   2  22
ATOM     22  C7  UNK A   1      11.061   8.437  -6.590  1.00  0.00     0.079 A 
ATOM     23  N3  UNK A   1      10.885   9.805  -6.711  1.00  0.00    -0.131 NA
ATOM     24  O1  UNK A   1      11.117  10.358  -5.411  1.00  0.00    -0.212 OA
ATOM     25  C18 UNK A   1      11.427   9.322  -4.565  1.00  0.00     0.116 A 
ATOM     26  C10 UNK A   1      11.408   8.124  -5.232  1.00  0.00     0.027 A 
ATOM     27  C21 UNK A   1      11.733   9.392  -3.198  1.00  0.00     0.082 A 
ATOM     28  C19 UNK A   1      11.692   6.910  -4.593  1.00  0.00     0.019 A 
ATOM     29  C22 UNK A   1      11.998   6.952  -3.216  1.00  0.00     0.043 A 
ATOM     30  C23 UNK A   1      12.017   8.186  -2.528  1.00  0.00     0.119 A 
ATOM     31  F1  UNK A   1      12.309   8.207  -1.212  1.00  0.00    -0.206 F 
ENDBRANCH   2  22
TORSDOF 4
ENDMDL
MODEL 2
REMARK VINA RESULT:     -12.3      1.581      2.195
REMARK  4 active torsions:
REMARK  status: ('A' for Active; 'I' for Inactive)
REMARK    1  A    between atoms: N1_4  and  C6_13 
REMARK    2  A    between atoms: C1_8  and  C7_14 
REMARK    3  A    between atoms: C6_13  and  C8_15 
REMARK    4  A    between atoms: C8_15  and  C9_16 
ROOT
ATOM      1  N1  UNK A   1       9.000   6.283  -9.882  1.00  0.00    -0.071 N 
ATOM      2  C1  UNK A   1      10.712   7.259  -7.597  1.00  0.00     0.044 C 
ATOM      3  C2  UNK A   1      10.710   7.953  -8.986  1.00  0.00     0.038 C 
ATOM      4  C3  UNK A   1       9.417   6.433  -7.356  1.00  0.00     0.038 C 
ATOM      5  C4  UNK A   1      10.338   6.970 -10.116  1.00  0.00     0.235 C 
ATOM      6  C5  UNK A   1       9.082   5.527  -8.565  1.00  0.00     0.235 C 
ATOM      7  HN  UNK A   1       8.256   6.999  -9.814  1.00  0.00     0.279 HD
ENDROOT
BRANCH   1   8
ATOM      8  C6  UNK A   1       8.679   5.326 -11.019  1.00  0.00     0.239 C 
BRANCH   8   9
ATOM      9  C8  UNK A   1       8.925   5.884 -12.441  1.00  0.00     0.074 C 
BRANCH   9  10
ATOM     10  C9  UNK A   1       9.443   4.810 -13.376  1.00  0.00     0.036 A 
ATOM     11  C16 UNK A   1       8.476   3.763 -13.801  1.00  0.00     0.257 A 
ATOM     12  O2  UNK A   1       7.308   3.773 -13.451  1.00  0.00    -0.267 OA
ATOM     13  N2  UNK A   1       9.015   2.772 -14.627  1.00  0.00    -0.302 N 
ATOM     14  C11 UNK A   1       8.151   1.631 -15.009  1.00  0.00     0.133 C 
ATOM     15  C13 UNK A   1      10.370   2.786 -14.977  1.00  0.00     0.109 A 
ATOM     16  C12 UNK A   1       8.717   0.738 -16.139  1.00  0.00     0.021 C 
ATOM     17  C14 UNK A   1      10.203   0.422 -15.902  1.00  0.00     0.009 C 
ATOM     18  C15 UNK A   1      11.014   1.731 -15.850  1.00  0.00     0.079 C 
ATOM     19  N4  UNK A   1      11.117   3.807 -14.626  1.00  0.00    -0.239 NA
ATOM     20  C17 UNK A   1      10.749   4.790 -13.837  1.00  0.00     0.044 A 
ATOM     21  C20 UNK A   1      11.804   5.820 -13.511  1.00  0.00     0.071 C 
ENDBRANCH   9  10
ENDBRANCH   8   9
ENDBRANCH   1   8
BRANCH   2  22
ATOM     22  C7  UNK A   1      10.948   8.267  -6.499  1.00  0.00     0.079 A 
ATOM     23  N3  UNK A   1      10.853   9.630  -6.721  1.00  0.00    -0.131 NA
ATOM     24  O1  UNK A   1      11.202  10.265  -5.486  1.00  0.00    -0.212 OA
ATOM     25  C18 UNK A   1      11.497   9.279  -4.577  1.00  0.00     0.116 A 
ATOM     26  C10 UNK A   1      11.359   8.037  -5.142  1.00  0.00     0.027 A 
ATOM     27  C21 UNK A   1      11.893   9.434  -3.241  1.00  0.00     0.082 A 
ATOM     28  C19 UNK A   1      11.603   6.859  -4.423  1.00  0.00     0.019 A 
ATOM     29  C22 UNK A   1      11.998   6.987  -3.074  1.00  0.00     0.043 A 
ATOM     30  C23 UNK A   1      12.140   8.267  -2.492  1.00  0.00     0.119 A 
ATOM     31  F1  UNK A   1      12.516   8.371  -1.201  1.00  0.00    -0.206 F 
ENDBRANCH   2  22
TORSDOF 4
ENDMDL
MODEL 3
REMARK VINA RESULT:     -11.9      1.882      3.227
REMARK  4 active torsions:
REMARK  status: ('A' for Active; 'I' for Inactive)
REMARK    1  A    between atoms: N1_4  and  C6_13 
REMARK    2  A    between atoms: C1_8  and  C7_14 
REMARK    3  A    between atoms: C6_13  and  C8_15 
REMARK    4  A    between atoms: C8_15  and  C9_16 
ROOT
ATOM      1  N1  UNK A   1       8.996   6.302  -9.865  1.00  0.00    -0.071 N 
ATOM      2  C1  UNK A   1      10.712   7.287  -7.587  1.00  0.00     0.044 C 
ATOM      3  C2  UNK A   1      10.704   7.977  -8.978  1.00  0.00     0.038 C 
ATOM      4  C3  UNK A   1       9.419   6.459  -7.341  1.00  0.00     0.038 C 
ATOM      5  C4  UNK A   1      10.331   6.991 -10.105  1.00  0.00     0.235 C 
ATOM      6  C5  UNK A   1       9.082   5.550  -8.547  1.00  0.00     0.235 C 
ATOM      7  HN  UNK A   1       8.251   7.017  -9.798  1.00  0.00     0.279 HD
ENDROOT
BRANCH   1   8
ATOM      8  C6  UNK A   1       8.674   5.342 -11.000  1.00  0.00     0.239 C 
BRANCH   8   9
ATOM      9  C8  UNK A   1       8.567   5.987 -12.402  1.00  0.00     0.074 C 
BRANCH   9  10
ATOM     10  C9  UNK A   1       8.972   5.015 -13.491  1.00  0.00     0.036 A 
ATOM     11  C16 UNK A   1      10.332   5.181 -14.070  1.00  0.00     0.257 A 
ATOM     12  O2  UNK A   1      11.110   6.033 -13.676  1.00  0.00    -0.267 OA
ATOM     13  N2  UNK A   1      10.639   4.288 -15.101  1.00  0.00    -0.302 N 
ATOM     14  C11 UNK A   1      11.929   4.452 -15.810  1.00  0.00     0.133 C 
ATOM     15  C13 UNK A   1       9.701   3.347 -15.542  1.00  0.00     0.109 A 
ATOM     16  C12 UNK A   1      12.320   3.269 -16.729  1.00  0.00     0.021 C 
ATOM     17  C14 UNK A   1      11.124   2.813 -17.581  1.00  0.00     0.009 C 
ATOM     18  C15 UNK A   1       9.969   2.369 -16.664  1.00  0.00     0.079 C 
ATOM     19  N4  UNK A   1       8.563   3.221 -14.899  1.00  0.00    -0.239 NA
ATOM     20  C17 UNK A   1       8.137   4.003 -13.933  1.00  0.00     0.044 A 
ATOM     21  C20 UNK A   1       6.759   3.711 -13.391  1.00  0.00     0.071 C 
ENDBRANCH   9  10
ENDBRANCH   8   9
ENDBRANCH   1   8
BRANCH   2  22
ATOM     22  C7  UNK A   1      10.948   8.297  -6.492  1.00  0.00     0.079 A 
ATOM     23  N3  UNK A   1      10.857   9.660  -6.719  1.00  0.00    -0.131 NA
ATOM     24  O1  UNK A   1      11.206  10.299  -5.486  1.00  0.00    -0.212 OA
ATOM     25  C18 UNK A   1      11.498   9.315  -4.573  1.00  0.00     0.116 A 
ATOM     26  C10 UNK A   1      11.357   8.071  -5.134  1.00  0.00     0.027 A 
ATOM     27  C21 UNK A   1      11.892   9.474  -3.237  1.00  0.00     0.082 A 
ATOM     28  C19 UNK A   1      11.598   6.896  -4.411  1.00  0.00     0.019 A 
ATOM     29  C22 UNK A   1      11.992   7.027  -3.062  1.00  0.00     0.043 A 
ATOM     30  C23 UNK A   1      12.136   8.309  -2.484  1.00  0.00     0.119 A 
ATOM     31  F1  UNK A   1      12.510   8.416  -1.193  1.00  0.00    -0.206 F 
ENDBRANCH   2  22
TORSDOF 4
ENDMDL
MODEL 4
REMARK VINA RESULT:     -11.8      1.275      2.170
REMARK  4 active torsions:
REMARK  status: ('A' for Active; 'I' for Inactive)
REMARK    1  A    between atoms: N1_4  and  C6_13 
REMARK    2  A    between atoms: C1_8  and  C7_14 
REMARK    3  A    between atoms: C6_13  and  C8_15 
REMARK    4  A    between atoms: C8_15  and  C9_16 
ROOT
ATOM      1  N1  UNK A   1       9.241   6.189 -10.102  1.00  0.00    -0.071 N 
ATOM      2  C1  UNK A   1      10.785   7.330  -7.774  1.00  0.00     0.044 C 
ATOM      3  C2  UNK A   1      10.768   8.009  -9.171  1.00  0.00     0.038 C 
ATOM      4  C3  UNK A   1       9.560   6.395  -7.565  1.00  0.00     0.038 C 
ATOM      5  C4  UNK A   1      10.521   6.988 -10.301  1.00  0.00     0.235 C 
ATOM      6  C5  UNK A   1       9.345   5.454  -8.775  1.00  0.00     0.235 C 
ATOM      7  HN  UNK A   1       8.436   6.838 -10.066  1.00  0.00     0.279 HD
ENDROOT
BRANCH   1   8
ATOM      8  C6  UNK A   1       9.042   5.198 -11.238  1.00  0.00     0.239 C 
BRANCH   8   9
ATOM      9  C8  UNK A   1       7.962   5.589 -12.274  1.00  0.00     0.074 C 
BRANCH   9  10
ATOM     10  C9  UNK A   1       7.593   4.416 -13.159  1.00  0.00     0.036 A 
ATOM     11  C16 UNK A   1       8.605   3.983 -14.160  1.00  0.00     0.257 A 
ATOM     12  O2  UNK A   1       9.698   4.515 -14.255  1.00  0.00    -0.267 OA
ATOM     13  N2  UNK A   1       8.198   2.927 -14.980  1.00  0.00    -0.302 N 
ATOM     14  C11 UNK A   1       9.099   2.504 -16.077  1.00  0.00     0.133 C 
ATOM     15  C13 UNK A   1       6.921   2.369 -14.855  1.00  0.00     0.109 A 
ATOM     16  C12 UNK A   1       8.718   1.163 -16.750  1.00  0.00     0.021 C 
ATOM     17  C14 UNK A   1       7.209   1.099 -17.041  1.00  0.00     0.009 C 
ATOM     18  C15 UNK A   1       6.418   1.238 -15.726  1.00  0.00     0.079 C 
ATOM     19  N4  UNK A   1       6.138   2.761 -13.876  1.00  0.00    -0.239 NA
ATOM     20  C17 UNK A   1       6.382   3.753 -13.050  1.00  0.00     0.044 A 
ATOM     21  C20 UNK A   1       5.301   4.072 -12.047  1.00  0.00     0.071 C 
ENDBRANCH   9  10
ENDBRANCH   8   9
ENDBRANCH   1   8
BRANCH   2  22
ATOM     22  C7  UNK A   1      10.896   8.363  -6.680  1.00  0.00     0.079 A 
ATOM     23  N3  UNK A   1      10.655   9.706  -6.912  1.00  0.00    -0.131 NA
ATOM     24  O1  UNK A   1      10.918  10.383  -5.679  1.00  0.00    -0.212 OA
ATOM     25  C18 UNK A   1      11.309   9.441  -4.760  1.00  0.00     0.116 A 
ATOM     26  C10 UNK A   1      11.314   8.188  -5.317  1.00  0.00     0.027 A 
ATOM     27  C21 UNK A   1      11.669   9.646  -3.421  1.00  0.00     0.082 A 
ATOM     28  C19 UNK A   1      11.678   7.048  -4.587  1.00  0.00     0.019 A 
ATOM     29  C22 UNK A   1      12.040   7.226  -3.235  1.00  0.00     0.043 A 
ATOM     30  C23 UNK A   1      12.034   8.517  -2.661  1.00  0.00     0.119 A 
ATOM     31  F1  UNK A   1      12.381   8.669  -1.366  1.00  0.00    -0.206 F 
ENDBRANCH   2  22
TORSDOF 4
ENDMDL
MODEL 5
REMARK VINA RESULT:     -11.3      2.723      4.596
REMARK  4 active torsions:
REMARK  status: ('A' for Active; 'I' for Inactive)
REMARK    1  A    between atoms: N1_4  and  C6_13 
REMARK    2  A    between atoms: C1_8  and  C7_14 
REMARK    3  A    between atoms: C6_13  and  C8_15 
REMARK    4  A    between atoms: C8_15  and  C9_16 
ROOT
ATOM      1  N1  UNK A   1       9.569   7.268 -10.291  1.00  0.00    -0.071 N 
ATOM      2  C1  UNK A   1      11.022   7.886  -7.721  1.00  0.00     0.044 C 
ATOM      3  C2  UNK A   1      11.119   8.804  -8.970  1.00  0.00     0.038 C 
ATOM      4  C3  UNK A   1       9.746   6.999  -7.747  1.00  0.00     0.038 C 
ATOM      5  C4  UNK A   1      10.893   8.017 -10.278  1.00  0.00     0.235 C 
ATOM      6  C5  UNK A   1       9.560   6.303  -9.116  1.00  0.00     0.235 C 
ATOM      7  HN  UNK A   1       8.793   7.943 -10.179  1.00  0.00     0.279 HD
ENDROOT
BRANCH   1   8
ATOM      8  C6  UNK A   1       9.393   6.508 -11.597  1.00  0.00     0.239 C 
BRANCH   8   9
ATOM      9  C8  UNK A   1      10.606   5.652 -12.032  1.00  0.00     0.074 C 
BRANCH   9  10
ATOM     10  C9  UNK A   1      10.822   5.718 -13.530  1.00  0.00     0.036 A 
ATOM     11  C16 UNK A   1      11.884   6.637 -14.018  1.00  0.00     0.257 A 
ATOM     12  O2  UNK A   1      12.580   7.291 -13.259  1.00  0.00    -0.267 OA
ATOM     13  N2  UNK A   1      12.013   6.694 -15.408  1.00  0.00    -0.302 N 
ATOM     14  C11 UNK A   1      12.970   7.665 -15.986  1.00  0.00     0.133 C 
ATOM     15  C13 UNK A   1      11.169   5.948 -16.240  1.00  0.00     0.109 A 
ATOM     16  C12 UNK A   1      13.264   7.471 -17.493  1.00  0.00     0.021 C 
ATOM     17  C14 UNK A   1      11.965   7.238 -18.283  1.00  0.00     0.009 C 
ATOM     18  C15 UNK A   1      11.248   5.983 -17.751  1.00  0.00     0.079 C 
ATOM     19  N4  UNK A   1      10.326   5.094 -15.707  1.00  0.00    -0.239 NA
ATOM     20  C17 UNK A   1      10.087   4.955 -14.423  1.00  0.00     0.044 A 
ATOM     21  C20 UNK A   1       9.019   3.958 -14.043  1.00  0.00     0.071 C 
ENDBRANCH   9  10
ENDBRANCH   8   9
ENDBRANCH   1   8
BRANCH   2  22
ATOM     22  C7  UNK A   1      11.115   8.700  -6.453  1.00  0.00     0.079 A 
ATOM     23  N3  UNK A   1      10.920  10.070  -6.445  1.00  0.00    -0.131 NA
ATOM     24  O1  UNK A   1      11.149  10.502  -5.100  1.00  0.00    -0.212 OA
ATOM     25  C18 UNK A   1      11.475   9.396  -4.355  1.00  0.00     0.116 A 
ATOM     26  C10 UNK A   1      11.470   8.266  -5.131  1.00  0.00     0.027 A 
ATOM     27  C21 UNK A   1      11.784   9.343  -2.989  1.00  0.00     0.082 A 
ATOM     28  C19 UNK A   1      11.772   7.001  -4.609  1.00  0.00     0.019 A 
ATOM     29  C22 UNK A   1      12.082   6.918  -3.235  1.00  0.00     0.043 A 
ATOM     30  C23 UNK A   1      12.086   8.083  -2.435  1.00  0.00     0.119 A 
ATOM     31  F1  UNK A   1      12.382   7.985  -1.122  1.00  0.00    -0.206 F 
ENDBRANCH   2  22
TORSDOF 4
ENDMDL
MODEL 6
REMARK VINA RESULT:     -11.3      4.363     10.562
REMARK  4 active torsions:
REMARK  status: ('A' for Active; 'I' for Inactive)
REMARK    1  A    between atoms: N1_4  and  C6_13 
REMARK    2  A    between atoms: C1_8  and  C7_14 
REMARK    3  A    between atoms: C6_13  and  C8_15 
REMARK    4  A    between atoms: C8_15  and  C9_16 
ROOT
ATOM      1  N1  UNK A   1      11.199   7.521 -10.337  1.00  0.00    -0.071 N 
ATOM      2  C1  UNK A   1      10.572   5.955 -12.838  1.00  0.00     0.044 C 
ATOM      3  C2  UNK A   1      12.029   6.224 -12.372  1.00  0.00     0.038 C 
ATOM      4  C3  UNK A   1       9.554   6.073 -11.669  1.00  0.00     0.038 C 
ATOM      5  C4  UNK A   1      12.133   7.518 -11.539  1.00  0.00     0.235 C 
ATOM      6  C5  UNK A   1       9.775   7.364 -10.845  1.00  0.00     0.235 C 
ATOM      7  HN  UNK A   1      11.430   6.719  -9.725  1.00  0.00     0.279 HD
ENDROOT
BRANCH   1   8
ATOM      8  C6  UNK A   1      11.338   8.815  -9.550  1.00  0.00     0.239 C 
BRANCH   8   9
ATOM      9  C8  UNK A   1      10.207   9.093  -8.532  1.00  0.00     0.074 C 
BRANCH   9  10
ATOM     10  C9  UNK A   1      10.523   8.499  -7.175  1.00  0.00     0.036 A 
ATOM     11  C16 UNK A   1      11.355   9.322  -6.257  1.00  0.00     0.257 A 
ATOM     12  O2  UNK A   1      11.745  10.439  -6.554  1.00  0.00    -0.267 OA
ATOM     13  N2  UNK A   1      11.655   8.710  -5.036  1.00  0.00    -0.302 N 
ATOM     14  C11 UNK A   1      12.570   9.412  -4.106  1.00  0.00     0.133 C 
ATOM     15  C13 UNK A   1      11.212   7.413  -4.753  1.00  0.00     0.109 A 
ATOM     16  C12 UNK A   1      12.625   8.818  -2.678  1.00  0.00     0.021 C 
ATOM     17  C14 UNK A   1      12.737   7.284  -2.721  1.00  0.00     0.009 C 
ATOM     18  C15 UNK A   1      11.521   6.692  -3.459  1.00  0.00     0.079 C 
ATOM     19  N4  UNK A   1      10.403   6.809  -5.593  1.00  0.00    -0.239 NA
ATOM     20  C17 UNK A   1      10.059   7.256  -6.780  1.00  0.00     0.044 A 
ATOM     21  C20 UNK A   1       9.174   6.354  -7.605  1.00  0.00     0.071 C 
ENDBRANCH   9  10
ENDBRANCH   8   9
ENDBRANCH   1   8
BRANCH   2  22
ATOM     22  C7  UNK A   1      10.474   4.620 -13.535  1.00  0.00     0.079 A 
ATOM     23  N3  UNK A   1       9.734   3.572 -13.014  1.00  0.00    -0.131 NA
ATOM     24  O1  UNK A   1       9.926   2.463 -13.899  1.00  0.00    -0.212 OA
ATOM     25  C18 UNK A   1      10.767   2.871 -14.904  1.00  0.00     0.116 A 
ATOM     26  C10 UNK A   1      11.134   4.181 -14.733  1.00  0.00     0.027 A 
ATOM     27  C21 UNK A   1      11.234   2.118 -15.990  1.00  0.00     0.082 A 
ATOM     28  C19 UNK A   1      11.991   4.839 -15.625  1.00  0.00     0.019 A 
ATOM     29  C22 UNK A   1      12.472   4.104 -16.730  1.00  0.00     0.043 A 
ATOM     30  C23 UNK A   1      12.093   2.755 -16.908  1.00  0.00     0.119 A 
ATOM     31  F1  UNK A   1      12.560   2.068 -17.971  1.00  0.00    -0.206 F 
ENDBRANCH   2  22
TORSDOF 4
ENDMDL
MODEL 7
REMARK VINA RESULT:     -11.2      3.645     10.367
REMARK  4 active torsions:
REMARK  status: ('A' for Active; 'I' for Inactive)
REMARK    1  A    between atoms: N1_4  and  C6_13 
REMARK    2  A    between atoms: C1_8  and  C7_14 
REMARK    3  A    between atoms: C6_13  and  C8_15 
REMARK    4  A    between atoms: C8_15  and  C9_16 
ROOT
ATOM      1  N1  UNK A   1      11.330   7.400 -10.500  1.00  0.00    -0.071 N 
ATOM      2  C1  UNK A   1      10.253   6.209 -13.055  1.00  0.00     0.044 C 
ATOM      3  C2  UNK A   1      11.776   6.342 -12.779  1.00  0.00     0.038 C 
ATOM      4  C3  UNK A   1       9.420   6.222 -11.742  1.00  0.00     0.038 C 
ATOM      5  C4  UNK A   1      12.084   7.509 -11.818  1.00  0.00     0.235 C 
ATOM      6  C5  UNK A   1       9.841   7.382 -10.808  1.00  0.00     0.235 C 
ATOM      7  HN  UNK A   1      11.589   6.514 -10.032  1.00  0.00     0.279 HD
ENDROOT
BRANCH   1   8
ATOM      8  C6  UNK A   1      11.665   8.571  -9.589  1.00  0.00     0.239 C 
BRANCH   8   9
ATOM      9  C8  UNK A   1      10.536   9.000  -8.623  1.00  0.00     0.074 C 
BRANCH   9  10
ATOM     10  C9  UNK A   1      10.749   8.431  -7.235  1.00  0.00     0.036 A 
ATOM     11  C16 UNK A   1      11.591   9.226  -6.302  1.00  0.00     0.257 A 
ATOM     12  O2  UNK A   1      12.069  10.304  -6.613  1.00  0.00    -0.267 OA
ATOM     13  N2  UNK A   1      11.793   8.637  -5.051  1.00  0.00    -0.302 N 
ATOM     14  C11 UNK A   1      12.708   9.306  -4.099  1.00  0.00     0.133 C 
ATOM     15  C13 UNK A   1      11.250   7.382  -4.751  1.00  0.00     0.109 A 
ATOM     16  C12 UNK A   1      12.657   8.757  -2.653  1.00  0.00     0.021 C 
ATOM     17  C14 UNK A   1      12.667   7.219  -2.645  1.00  0.00     0.009 C 
ATOM     18  C15 UNK A   1      11.449   6.685  -3.423  1.00  0.00     0.079 C 
ATOM     19  N4  UNK A   1      10.442   6.805  -5.611  1.00  0.00    -0.239 NA
ATOM     20  C17 UNK A   1      10.184   7.234  -6.826  1.00  0.00     0.044 A 
ATOM     21  C20 UNK A   1       9.279   6.366  -7.666  1.00  0.00     0.071 C 
ENDBRANCH   9  10
ENDBRANCH   8   9
ENDBRANCH   1   8
BRANCH   2  22
ATOM     22  C7  UNK A   1       9.968   4.984 -13.888  1.00  0.00     0.079 A 
ATOM     23  N3  UNK A   1      10.873   4.502 -14.818  1.00  0.00    -0.131 NA
ATOM     24  O1  UNK A   1      10.242   3.385 -15.454  1.00  0.00    -0.212 OA
ATOM     25  C18 UNK A   1       8.995   3.238 -14.901  1.00  0.00     0.116 A 
ATOM     26  C10 UNK A   1       8.772   4.189 -13.937  1.00  0.00     0.027 A 
ATOM     27  C21 UNK A   1       8.023   2.279 -15.217  1.00  0.00     0.082 A 
ATOM     28  C19 UNK A   1       7.571   4.258 -13.219  1.00  0.00     0.019 A 
ATOM     29  C22 UNK A   1       6.578   3.300 -13.516  1.00  0.00     0.043 A 
ATOM     30  C23 UNK A   1       6.806   2.320 -14.507  1.00  0.00     0.119 A 
ATOM     31  F1  UNK A   1       5.847   1.411 -14.776  1.00  0.00    -0.206 F 
ENDBRANCH   2  22
TORSDOF 4
ENDMDL
MODEL 8
REMARK VINA RESULT:     -11.2      2.284      3.179
REMARK  4 active torsions:
REMARK  status: ('A' for Active; 'I' for Inactive)
REMARK    1  A    between atoms: N1_4  and  C6_13 
REMARK    2  A    between atoms: C1_8  and  C7_14 
REMARK    3  A    between atoms: C6_13  and  C8_15 
REMARK    4  A    between atoms: C8_15  and  C9_16 
ROOT
ATOM      1  N1  UNK A   1       9.974   6.135  -9.337  1.00  0.00    -0.071 N 
ATOM      2  C1  UNK A   1       9.881   8.299  -7.237  1.00  0.00     0.044 C 
ATOM      3  C2  UNK A   1       9.533   6.819  -6.919  1.00  0.00     0.038 C 
ATOM      4  C3  UNK A   1      10.765   8.429  -8.509  1.00  0.00     0.038 C 
ATOM      5  C4  UNK A   1       9.007   6.074  -8.164  1.00  0.00     0.235 C 
ATOM      6  C5  UNK A   1      10.202   7.597  -9.686  1.00  0.00     0.235 C 
ATOM      7  HN  UNK A   1      10.875   5.709  -9.059  1.00  0.00     0.279 HD
ENDROOT
BRANCH   1   8
ATOM      8  C6  UNK A   1       9.411   5.389 -10.538  1.00  0.00     0.239 C 
BRANCH   8   9
ATOM      9  C8  UNK A   1       9.279   6.226 -11.832  1.00  0.00     0.074 C 
BRANCH   9  10
ATOM     10  C9  UNK A   1       9.993   5.567 -12.994  1.00  0.00     0.036 A 
ATOM     11  C16 UNK A   1       9.254   4.500 -13.721  1.00  0.00     0.257 A 
ATOM     12  O2  UNK A   1       8.113   4.182 -13.430  1.00  0.00    -0.267 OA
ATOM     13  N2  UNK A   1       9.973   3.894 -14.755  1.00  0.00    -0.302 N 
ATOM     14  C11 UNK A   1       9.356   2.748 -15.461  1.00  0.00     0.133 C 
ATOM     15  C13 UNK A   1      11.292   4.272 -15.032  1.00  0.00     0.109 A 
ATOM     16  C12 UNK A   1      10.077   2.321 -16.762  1.00  0.00     0.021 C 
ATOM     17  C14 UNK A   1      11.600   2.257 -16.554  1.00  0.00     0.009 C 
ATOM     18  C15 UNK A   1      12.127   3.640 -16.124  1.00  0.00     0.079 C 
ATOM     19  N4  UNK A   1      11.820   5.290 -14.393  1.00  0.00    -0.239 NA
ATOM     20  C17 UNK A   1      11.269   5.933 -13.388  1.00  0.00     0.044 A 
ATOM     21  C20 UNK A   1      12.095   7.027 -12.758  1.00  0.00     0.071 C 
ENDBRANCH   9  10
ENDBRANCH   8   9
ENDBRANCH   1   8
BRANCH   2  22
ATOM     22  C7  UNK A   1      10.515   8.966  -6.041  1.00  0.00     0.079 A 
ATOM     23  N3  UNK A   1      10.641  10.341  -5.948  1.00  0.00    -0.131 NA
ATOM     24  O1  UNK A   1      11.339  10.601  -4.727  1.00  0.00    -0.212 OA
ATOM     25  C18 UNK A   1      11.614   9.393  -4.136  1.00  0.00     0.116 A 
ATOM     26  C10 UNK A   1      11.133   8.357  -4.896  1.00  0.00     0.027 A 
ATOM     27  C21 UNK A   1      12.286   9.161  -2.928  1.00  0.00     0.082 A 
ATOM     28  C19 UNK A   1      11.284   7.018  -4.514  1.00  0.00     0.019 A 
ATOM     29  C22 UNK A   1      11.953   6.757  -3.299  1.00  0.00     0.043 A 
ATOM     30  C23 UNK A   1      12.448   7.824  -2.515  1.00  0.00     0.119 A 
ATOM     31  F1  UNK A   1      13.083   7.556  -1.355  1.00  0.00    -0.206 F 
ENDBRANCH   2  22
TORSDOF 4
ENDMDL
MODEL 9
REMARK VINA RESULT:     -10.5      4.695     10.652
REMARK  4 active torsions:
REMARK  status: ('A' for Active; 'I' for Inactive)
REMARK    1  A    between atoms: N1_4  and  C6_13 
REMARK    2  A    between atoms: C1_8  and  C7_14 
REMARK    3  A    between atoms: C6_13  and  C8_15 
REMARK    4  A    between atoms: C8_15  and  C9_16 
ROOT
ATOM      1  N1  UNK A   1      10.375   7.974 -10.972  1.00  0.00    -0.071 N 
ATOM      2  C1  UNK A   1      11.287   5.842 -12.902  1.00  0.00     0.044 C 
ATOM      3  C2  UNK A   1       9.785   6.110 -12.611  1.00  0.00     0.038 C 
ATOM      4  C3  UNK A   1      12.175   7.071 -12.559  1.00  0.00     0.038 C 
ATOM      5  C4  UNK A   1       9.571   6.703 -11.203  1.00  0.00     0.235 C 
ATOM      6  C5  UNK A   1      11.847   7.642 -11.159  1.00  0.00     0.235 C 
ATOM      7  HN  UNK A   1      10.098   8.685 -11.670  1.00  0.00     0.279 HD
ENDROOT
BRANCH   1   8
ATOM      8  C6  UNK A   1      10.132   8.518  -9.572  1.00  0.00     0.239 C 
BRANCH   8   9
ATOM      9  C8  UNK A   1      11.406   8.898  -8.781  1.00  0.00     0.074 C 
BRANCH   9  10
ATOM     10  C9  UNK A   1      11.359   8.362  -7.365  1.00  0.00     0.036 A 
ATOM     11  C16 UNK A   1      11.875   9.251  -6.290  1.00  0.00     0.257 A 
ATOM     12  O2  UNK A   1      12.291  10.375  -6.517  1.00  0.00    -0.267 OA
ATOM     13  N2  UNK A   1      11.851   8.693  -5.009  1.00  0.00    -0.302 N 
ATOM     14  C11 UNK A   1      12.448   9.465  -3.895  1.00  0.00     0.133 C 
ATOM     15  C13 UNK A   1      11.394   7.386  -4.802  1.00  0.00     0.109 A 
ATOM     16  C12 UNK A   1      12.129   8.920  -2.482  1.00  0.00     0.021 C 
ATOM     17  C14 UNK A   1      12.305   7.393  -2.427  1.00  0.00     0.009 C 
ATOM     18  C15 UNK A   1      11.361   6.721  -3.443  1.00  0.00     0.079 C 
ATOM     19  N4  UNK A   1      10.870   6.719  -5.805  1.00  0.00    -0.239 NA
ATOM     20  C17 UNK A   1      10.849   7.111  -7.058  1.00  0.00     0.044 A 
ATOM     21  C20 UNK A   1      10.259   6.144  -8.055  1.00  0.00     0.071 C 
ENDBRANCH   9  10
ENDBRANCH   8   9
ENDBRANCH   1   8
BRANCH   2  22
ATOM     22  C7  UNK A   1      11.481   5.389 -14.328  1.00  0.00     0.079 A 
ATOM     23  N3  UNK A   1      11.833   6.269 -15.336  1.00  0.00    -0.131 NA
ATOM     24  O1  UNK A   1      11.861   5.506 -16.547  1.00  0.00    -0.212 OA
ATOM     25  C18 UNK A   1      11.522   4.213 -16.234  1.00  0.00     0.116 A 
ATOM     26  C10 UNK A   1      11.279   4.083 -14.891  1.00  0.00     0.027 A 
ATOM     27  C21 UNK A   1      11.417   3.119 -17.105  1.00  0.00     0.082 A 
ATOM     28  C19 UNK A   1      10.913   2.859 -14.314  1.00  0.00     0.019 A 
ATOM     29  C22 UNK A   1      10.805   1.741 -15.168  1.00  0.00     0.043 A 
ATOM     30  C23 UNK A   1      11.057   1.875 -16.552  1.00  0.00     0.119 A 
ATOM     31  F1  UNK A   1      10.951   0.795 -17.353  1.00  0.00    -0.206 F 
ENDBRANCH   2  22
TORSDOF 4
ENDMDL
